<?xml version="1.0" encoding="UTF-8"?>

<!-- generated on 2026-07-11T12:51:24.101007+01:00 by Eclipse SUMO netedit 1.27.1
<neteditConfiguration xmlns:xsi="http://www.w3.org/2001/XMLSchema-instance" xsi:noNamespaceSchemaLocation="http://sumo.dlr.de/xsd/neteditConfiguration.xsd">

    <input>
        <sumo-net-file value="D:\Tesi\urban_traffic_optimization\sumo_config\intersection.net.xml"/>
    </input>

    <output>
        <output-file value="D:\Tesi\urban_traffic_optimization\sumo_config\intersection.net.xml"/>
    </output>

    <processing>
        <geometry.min-radius.fix.railways value="false"/>
        <geometry.avoid-overlap value="false"/>
        <geometry.max-grade.fix value="false"/>
        <offset.disable-normalization value="true"/>
    </processing>

    <junctions>
        <no-turnarounds value="true"/>
    </junctions>

</neteditConfiguration>
-->

<net version="1.20" junctionCornerDetail="5" limitTurnSpeed="5.50" avoidOverlap="0" xmlns:xsi="http://www.w3.org/2001/XMLSchema-instance" xsi:noNamespaceSchemaLocation="http://sumo.dlr.de/xsd/net_file.xsd">

    <location netOffset="0.00,0.00" convBoundary="-106.16,-27.82,-7.09,51.78" origBoundary="-10000000000.00,-10000000000.00,10000000000.00,10000000000.00" projParameter="!"/>

    <edge id=":J0_0" function="internal">
        <lane id=":J0_0_0" index="0" speed="6.59" length="9.15" shape="-50.60,17.31 -53.07,17.65 -54.85,18.71 -55.94,20.48 -56.35,22.96"/>
    </edge>
    <edge id=":J0_1" function="internal">
        <lane id=":J0_1_0" index="0" speed="13.89" length="14.44" shape="-50.60,17.31 -65.04,17.23"/>
    </edge>
    <edge id=":J0_2" function="internal">
        <lane id=":J0_2_0" index="0" speed="8.02" length="4.06" shape="-50.60,17.31 -54.44,16.74 -54.60,16.64"/>
    </edge>
    <edge id=":J0_12" function="internal">
        <lane id=":J0_12_0" index="0" speed="8.02" length="10.14" shape="-54.60,16.64 -57.19,15.07 -58.83,12.31 -59.38,8.45"/>
    </edge>
    <edge id=":J0_3" function="internal">
        <lane id=":J0_3_0" index="0" speed="6.53" length="9.06" shape="-56.18,8.45 -55.83,10.92 -54.78,12.68 -53.03,13.74 -50.59,14.11"/>
    </edge>
    <edge id=":J0_4" function="internal">
        <lane id=":J0_4_0" index="0" speed="13.89" length="14.51" shape="-56.18,8.45 -56.35,22.96"/>
    </edge>
    <edge id=":J0_5" function="internal">
        <lane id=":J0_5_0" index="0" speed="8.00" length="4.15" shape="-56.18,8.45 -56.73,12.31 -56.87,12.53"/>
    </edge>
    <edge id=":J0_13" function="internal">
        <lane id=":J0_13_0" index="0" speed="8.00" length="10.09" shape="-56.87,12.53 -58.40,15.06 -61.17,16.70 -65.04,17.23"/>
    </edge>
    <edge id=":J0_6" function="internal">
        <lane id=":J0_6_0" index="0" speed="6.51" length="9.06" shape="-65.03,14.03 -62.56,13.69 -60.79,12.65 -59.73,10.90 -59.38,8.45"/>
    </edge>
    <edge id=":J0_7" function="internal">
        <lane id=":J0_7_0" index="0" speed="13.89" length="14.44" shape="-65.03,14.03 -50.59,14.11"/>
    </edge>
    <edge id=":J0_8" function="internal">
        <lane id=":J0_8_0" index="0" speed="7.97" length="4.08" shape="-65.03,14.03 -61.15,14.61 -61.01,14.69"/>
    </edge>
    <edge id=":J0_14" function="internal">
        <lane id=":J0_14_0" index="0" speed="7.97" length="10.18" shape="-61.01,14.69 -58.41,16.29 -56.81,19.07 -56.35,22.96"/>
    </edge>
    <edge id=":J0_9" function="internal">
        <lane id=":J0_9_0" index="0" speed="6.47" length="9.03" shape="-59.54,22.89 -59.84,20.42 -60.86,18.66 -62.59,17.60 -65.04,17.23"/>
    </edge>
    <edge id=":J0_10" function="internal">
        <lane id=":J0_10_0" index="0" speed="13.89" length="14.44" shape="-59.54,22.89 -59.38,8.45"/>
    </edge>
    <edge id=":J0_11" function="internal">
        <lane id=":J0_11_0" index="0" speed="8.07" length="4.01" shape="-59.54,22.89 -58.91,19.03 -58.85,18.94"/>
    </edge>
    <edge id=":J0_15" function="internal">
        <lane id=":J0_15_0" index="0" speed="8.07" length="10.23" shape="-58.85,18.94 -57.21,16.28 -54.43,14.64 -50.59,14.11"/>
    </edge>

    <edge id="Est_in" from="J2" to="J0" priority="-1">
        <lane id="Est_in_0" index="0" speed="13.89" length="43.51" shape="-7.10,17.53 -50.60,17.31"/>
    </edge>
    <edge id="Est_out" from="J0" to="J2" priority="-1">
        <lane id="Est_out_0" index="0" speed="13.89" length="43.51" shape="-50.59,14.11 -7.08,14.33"/>
    </edge>
    <edge id="Nord_in" from="J1" to="J0" priority="-1">
        <lane id="Nord_in_0" index="0" speed="13.89" length="28.86" shape="-60.20,51.74 -59.54,22.89"/>
    </edge>
    <edge id="Nord_out" from="J0" to="J1" priority="-1">
        <lane id="Nord_out_0" index="0" speed="13.89" length="28.86" shape="-56.35,22.96 -57.00,51.82"/>
    </edge>
    <edge id="Ovest_in" from="J4" to="J0" priority="-1">
        <lane id="Ovest_in_0" index="0" speed="13.89" length="41.12" shape="-106.15,13.81 -65.03,14.03"/>
    </edge>
    <edge id="Ovest_out" from="J0" to="J4" priority="-1">
        <lane id="Ovest_out_0" index="0" speed="13.89" length="41.12" shape="-65.04,17.23 -106.17,17.01"/>
    </edge>
    <edge id="Sud_in" from="J3" to="J0" priority="-1">
        <lane id="Sud_in_0" index="0" speed="13.89" length="36.27" shape="-56.18,-27.82 -56.18,8.45"/>
    </edge>
    <edge id="Sud_out" from="J0" to="J3" priority="-1">
        <lane id="Sud_out_0" index="0" speed="13.89" length="36.27" shape="-59.38,8.45 -59.38,-27.82"/>
    </edge>

    <tlLogic id="J4" type="static" programID="0" offset="0">
        <phase duration="42" state="GGgrrrGGgrrr"/>
        <phase duration="3"  state="yyyrrryyyrrr"/>
        <phase duration="42" state="rrrGGgrrrGGg"/>
        <phase duration="3"  state="rrryyyrrryyy"/>
    </tlLogic>

    <junction id="J0" type="traffic_light" x="-57.78" y="15.67" incLanes="Est_in_0 Sud_in_0 Ovest_in_0 Nord_in_0" intLanes=":J0_0_0 :J0_1_0 :J0_12_0 :J0_3_0 :J0_4_0 :J0_13_0 :J0_6_0 :J0_7_0 :J0_14_0 :J0_9_0 :J0_10_0 :J0_15_0" shape="-50.61,18.91 -50.58,12.51 -52.80,12.05 -53.58,11.48 -54.14,10.70 -54.47,9.69 -54.58,8.45 -60.98,8.45 -61.43,10.67 -61.99,11.45 -62.77,12.00 -63.78,12.33 -65.02,12.43 -65.05,18.83 -62.84,19.29 -62.08,19.85 -61.54,20.63 -61.23,21.63 -61.14,22.85 -54.75,23.00 -54.24,20.72 -53.67,19.92 -52.87,19.35 -51.85,19.01" fringe="outer">
        <request index="0"  response="000000000000" foes="000100010000" cont="0"/>
        <request index="1"  response="100000100000" foes="111100110000" cont="0"/>
        <request index="2"  response="100111100000" foes="110111110000" cont="1"/>
        <request index="3"  response="000010000000" foes="100010000000" cont="0"/>
        <request index="4"  response="000110000111" foes="100110000111" cont="0"/>
        <request index="5"  response="011110000110" foes="111110000110" cont="1"/>
        <request index="6"  response="000000000000" foes="010000000100" cont="0"/>
        <request index="7"  response="100000100000" foes="110000111100" cont="0"/>
        <request index="8"  response="100000100011" foes="110000110111" cont="1"/>
        <request index="9"  response="000000000010" foes="000000100010" cont="0"/>
        <request index="10" response="000111000110" foes="000111100110" cont="0"/>
        <request index="11" response="000110111110" foes="000110111110" cont="1"/>
    </junction>
    <junction id="J1" type="dead_end" x="-58.60" y="51.78" incLanes="Nord_out_0" intLanes="" shape="-58.60,51.78 -55.40,51.85 -58.60,51.78"/>
    <junction id="J2" type="dead_end" x="-7.09" y="15.93" incLanes="Est_out_0" intLanes="" shape="-7.09,15.93 -7.07,12.73 -7.09,15.93"/>
    <junction id="J3" type="dead_end" x="-57.78" y="-27.82" incLanes="Sud_out_0" intLanes="" shape="-57.78,-27.82 -60.98,-27.82 -57.78,-27.82"/>
    <junction id="J4" type="dead_end" x="-106.16" y="15.41" incLanes="Ovest_out_0" intLanes="" shape="-106.16,15.41 -106.18,18.61 -106.16,15.41"/>

    <junction id=":J0_12_0" type="internal" x="-54.60" y="16.64" incLanes=":J0_2_0 Ovest_in_0" intLanes=":J0_4_0 :J0_5_0 :J0_6_0 :J0_7_0 :J0_10_0 :J0_11_0"/>
    <junction id=":J0_13_0" type="internal" x="-56.87" y="12.53" incLanes=":J0_5_0 Nord_in_0" intLanes=":J0_1_0 :J0_2_0 :J0_7_0 :J0_8_0 :J0_9_0 :J0_10_0"/>
    <junction id=":J0_14_0" type="internal" x="-61.01" y="14.69" incLanes=":J0_8_0 Est_in_0" intLanes=":J0_0_0 :J0_1_0 :J0_4_0 :J0_5_0 :J0_10_0 :J0_11_0"/>
    <junction id=":J0_15_0" type="internal" x="-58.85" y="18.94" incLanes=":J0_11_0 Sud_in_0" intLanes=":J0_1_0 :J0_2_0 :J0_3_0 :J0_4_0 :J0_7_0 :J0_8_0"/>

    <connection from="Est_in" to="Nord_out" fromLane="0" toLane="0" via=":J0_0_0" tl="J4" linkIndex="0" dir="r" state="O"/>
    <connection from="Est_in" to="Ovest_out" fromLane="0" toLane="0" via=":J0_1_0" tl="J4" linkIndex="1" dir="s" state="O"/>
    <connection from="Est_in" to="Sud_out" fromLane="0" toLane="0" via=":J0_2_0" tl="J4" linkIndex="2" dir="l" state="o"/>
    <connection from="Nord_in" to="Ovest_out" fromLane="0" toLane="0" via=":J0_9_0" tl="J4" linkIndex="9" dir="r" state="o"/>
    <connection from="Nord_in" to="Sud_out" fromLane="0" toLane="0" via=":J0_10_0" tl="J4" linkIndex="10" dir="s" state="o"/>
    <connection from="Nord_in" to="Est_out" fromLane="0" toLane="0" via=":J0_11_0" tl="J4" linkIndex="11" dir="l" state="o"/>
    <connection from="Ovest_in" to="Sud_out" fromLane="0" toLane="0" via=":J0_6_0" tl="J4" linkIndex="6" dir="r" state="O"/>
    <connection from="Ovest_in" to="Est_out" fromLane="0" toLane="0" via=":J0_7_0" tl="J4" linkIndex="7" dir="s" state="O"/>
    <connection from="Ovest_in" to="Nord_out" fromLane="0" toLane="0" via=":J0_8_0" tl="J4" linkIndex="8" dir="l" state="o"/>
    <connection from="Sud_in" to="Est_out" fromLane="0" toLane="0" via=":J0_3_0" tl="J4" linkIndex="3" dir="r" state="o"/>
    <connection from="Sud_in" to="Nord_out" fromLane="0" toLane="0" via=":J0_4_0" tl="J4" linkIndex="4" dir="s" state="o"/>
    <connection from="Sud_in" to="Ovest_out" fromLane="0" toLane="0" via=":J0_5_0" tl="J4" linkIndex="5" dir="l" state="o"/>

    <connection from=":J0_0" to="Nord_out" fromLane="0" toLane="0" dir="r" state="M"/>
    <connection from=":J0_1" to="Ovest_out" fromLane="0" toLane="0" dir="s" state="M"/>
    <connection from=":J0_2" to="Sud_out" fromLane="0" toLane="0" via=":J0_12_0" dir="l" state="m"/>
    <connection from=":J0_12" to="Sud_out" fromLane="0" toLane="0" dir="l" state="M"/>
    <connection from=":J0_3" to="Est_out" fromLane="0" toLane="0" dir="r" state="M"/>
    <connection from=":J0_4" to="Nord_out" fromLane="0" toLane="0" dir="s" state="M"/>
    <connection from=":J0_5" to="Ovest_out" fromLane="0" toLane="0" via=":J0_13_0" dir="l" state="m"/>
    <connection from=":J0_13" to="Ovest_out" fromLane="0" toLane="0" dir="l" state="M"/>
    <connection from=":J0_6" to="Sud_out" fromLane="0" toLane="0" dir="r" state="M"/>
    <connection from=":J0_7" to="Est_out" fromLane="0" toLane="0" dir="s" state="M"/>
    <connection from=":J0_8" to="Nord_out" fromLane="0" toLane="0" via=":J0_14_0" dir="l" state="m"/>
    <connection from=":J0_14" to="Nord_out" fromLane="0" toLane="0" dir="l" state="M"/>
    <connection from=":J0_9" to="Ovest_out" fromLane="0" toLane="0" dir="r" state="M"/>
    <connection from=":J0_10" to="Sud_out" fromLane="0" toLane="0" dir="s" state="M"/>
    <connection from=":J0_11" to="Est_out" fromLane="0" toLane="0" via=":J0_15_0" dir="l" state="m"/>
    <connection from=":J0_15" to="Est_out" fromLane="0" toLane="0" dir="l" state="M"/>

</net>
