<?xml version="1.0" encoding="UTF-8"?>

<!-- generated on 2026-07-12T16:06:23.757956+01:00 by Eclipse SUMO netedit 1.27.1
<neteditConfiguration xmlns:xsi="http://www.w3.org/2001/XMLSchema-instance" xsi:noNamespaceSchemaLocation="http://sumo.dlr.de/xsd/neteditConfiguration.xsd">

    <input>
        <sumo-net-file value="D:\Tesi\urban_traffic_optimization\sumo_config\intersection.net.xml"/>
    </input>

    <output>
        <output-file value="D:\Tesi\urban_traffic_optimization\sumo_config\intersection.net.xml"/>
    </output>

    <processing>
        <geometry.min-radius.fix.railways value="false"/>
        <geometry.avoid-overlap value="false"/>
        <geometry.max-grade.fix value="false"/>
        <offset.disable-normalization value="true"/>
    </processing>

    <junctions>
        <no-turnarounds value="true"/>
    </junctions>

</neteditConfiguration>
-->

<net version="1.20" junctionCornerDetail="5" limitTurnSpeed="5.50" avoidOverlap="0" xmlns:xsi="http://www.w3.org/2001/XMLSchema-instance" xsi:noNamespaceSchemaLocation="http://sumo.dlr.de/xsd/net_file.xsd">

    <location netOffset="0.00,0.00" convBoundary="-250.00,-250.00,250.00,250.00" origBoundary="-10000000000.00,-10000000000.00,10000000000.00,10000000000.00" projParameter="!"/>

    <edge id=":J0_0" function="internal">
        <lane id=":J0_0_0" index="0" speed="6.51" length="9.03" shape="-1.60,7.20 -1.95,4.75 -3.00,3.00 -4.75,1.95 -7.20,1.60"/>
    </edge>
    <edge id=":J0_1" function="internal">
        <lane id=":J0_1_0" index="0" speed="13.89" length="14.40" shape="-1.60,7.20 -1.60,-7.20"/>
    </edge>
    <edge id=":J0_2" function="internal">
        <lane id=":J0_2_0" index="0" speed="8.00" length="4.07" shape="-1.60,7.20 -1.05,3.35 -0.96,3.20"/>
    </edge>
    <edge id=":J0_12" function="internal">
        <lane id=":J0_12_0" index="0" speed="8.00" length="10.13" shape="-0.96,3.20 0.60,0.60 3.35,-1.05 7.20,-1.60"/>
    </edge>
    <edge id=":J0_3" function="internal">
        <lane id=":J0_3_0" index="0" speed="6.51" length="9.03" shape="7.20,1.60 4.75,1.95 3.00,3.00 1.95,4.75 1.60,7.20"/>
    </edge>
    <edge id=":J0_4" function="internal">
        <lane id=":J0_4_0" index="0" speed="13.89" length="14.40" shape="7.20,1.60 -7.20,1.60"/>
    </edge>
    <edge id=":J0_5" function="internal">
        <lane id=":J0_5_0" index="0" speed="8.00" length="4.07" shape="7.20,1.60 3.35,1.05 3.20,0.96"/>
    </edge>
    <edge id=":J0_13" function="internal">
        <lane id=":J0_13_0" index="0" speed="8.00" length="10.13" shape="3.20,0.96 0.60,-0.60 -1.05,-3.35 -1.60,-7.20"/>
    </edge>
    <edge id=":J0_6" function="internal">
        <lane id=":J0_6_0" index="0" speed="6.51" length="9.03" shape="1.60,-7.20 1.95,-4.75 3.00,-3.00 4.75,-1.95 7.20,-1.60"/>
    </edge>
    <edge id=":J0_7" function="internal">
        <lane id=":J0_7_0" index="0" speed="13.89" length="14.40" shape="1.60,-7.20 1.60,7.20"/>
    </edge>
    <edge id=":J0_8" function="internal">
        <lane id=":J0_8_0" index="0" speed="8.00" length="4.07" shape="1.60,-7.20 1.05,-3.35 0.96,-3.20"/>
    </edge>
    <edge id=":J0_14" function="internal">
        <lane id=":J0_14_0" index="0" speed="8.00" length="10.13" shape="0.96,-3.20 -0.60,-0.60 -3.35,1.05 -7.20,1.60"/>
    </edge>
    <edge id=":J0_9" function="internal">
        <lane id=":J0_9_0" index="0" speed="6.51" length="9.03" shape="-7.20,-1.60 -4.75,-1.95 -3.00,-3.00 -1.95,-4.75 -1.60,-7.20"/>
    </edge>
    <edge id=":J0_10" function="internal">
        <lane id=":J0_10_0" index="0" speed="13.89" length="14.40" shape="-7.20,-1.60 7.20,-1.60"/>
    </edge>
    <edge id=":J0_11" function="internal">
        <lane id=":J0_11_0" index="0" speed="8.00" length="4.07" shape="-7.20,-1.60 -3.35,-1.05 -3.20,-0.96"/>
    </edge>
    <edge id=":J0_15" function="internal">
        <lane id=":J0_15_0" index="0" speed="8.00" length="10.13" shape="-3.20,-0.96 -0.60,0.60 1.05,3.35 1.60,7.20"/>
    </edge>

    <edge id="Est_in" from="J2" to="J0" priority="-1" spreadType="unknown">
        <lane id="Est_in_0" index="0" speed="13.89" length="242.80" shape="250.00,1.60 7.20,1.60"/>
    </edge>
    <edge id="Est_out" from="J0" to="J2" priority="-1">
        <lane id="Est_out_0" index="0" speed="13.89" length="242.80" shape="7.20,-1.60 250.00,-1.60"/>
    </edge>
    <edge id="Nord_in" from="J1" to="J0" priority="-1">
        <lane id="Nord_in_0" index="0" speed="13.89" length="242.80" shape="-1.60,250.00 -1.60,7.20"/>
    </edge>
    <edge id="Nord_out" from="J0" to="J1" priority="-1">
        <lane id="Nord_out_0" index="0" speed="13.89" length="242.80" shape="1.60,7.20 1.60,250.00"/>
    </edge>
    <edge id="Ovest_in" from="J4" to="J0" priority="-1">
        <lane id="Ovest_in_0" index="0" speed="13.89" length="242.80" shape="-250.00,-1.60 -7.20,-1.60"/>
    </edge>
    <edge id="Ovest_out" from="J0" to="J4" priority="-1">
        <lane id="Ovest_out_0" index="0" speed="13.89" length="242.80" shape="-7.20,1.60 -250.00,1.60"/>
    </edge>
    <edge id="Sud_in" from="J3" to="J0" priority="-1">
        <lane id="Sud_in_0" index="0" speed="13.89" length="242.80" shape="1.60,-250.00 1.60,-7.20"/>
    </edge>
    <edge id="Sud_out" from="J0" to="J3" priority="-1">
        <lane id="Sud_out_0" index="0" speed="13.89" length="242.80" shape="-1.60,-7.20 -1.60,-250.00"/>
    </edge>

    <tlLogic id="J4" type="static" programID="0" offset="0">
        <phase duration="42" state="GGgrrrGGgrrr"/>
        <phase duration="3"  state="yyyrrryyyrrr"/>
        <phase duration="42" state="rrrGGgrrrGGg"/>
        <phase duration="3"  state="rrryyyrrryyy"/>
    </tlLogic>

    <junction id="J0" type="traffic_light" x="0.00" y="0.00" incLanes="Nord_in_0 Est_in_0 Sud_in_0 Ovest_in_0" intLanes=":J0_0_0 :J0_1_0 :J0_12_0 :J0_3_0 :J0_4_0 :J0_13_0 :J0_6_0 :J0_7_0 :J0_14_0 :J0_9_0 :J0_10_0 :J0_15_0" shape="-3.20,7.20 3.20,7.20 3.64,4.98 4.20,4.20 4.98,3.64 5.98,3.31 7.20,3.20 7.20,-3.20 4.98,-3.64 4.20,-4.20 3.64,-4.98 3.31,-5.98 3.20,-7.20 -3.20,-7.20 -3.64,-4.98 -4.20,-4.20 -4.98,-3.64 -5.98,-3.31 -7.20,-3.20 -7.20,3.20 -4.98,3.64 -4.20,4.20 -3.64,4.98 -3.31,5.98" fringe="outer">
        <request index="0"  response="000000000000" foes="000100010000" cont="0"/>
        <request index="1"  response="100000100000" foes="111100110000" cont="0"/>
        <request index="2"  response="100111100000" foes="110111110000" cont="1"/>
        <request index="3"  response="000010000000" foes="100010000000" cont="0"/>
        <request index="4"  response="000110000111" foes="100110000111" cont="0"/>
        <request index="5"  response="111110000110" foes="111110000110" cont="1"/>
        <request index="6"  response="000000000000" foes="010000000100" cont="0"/>
        <request index="7"  response="100000100000" foes="110000111100" cont="0"/>
        <request index="8"  response="100000100011" foes="110000110111" cont="1"/>
        <request index="9"  response="000000000010" foes="000000100010" cont="0"/>
        <request index="10" response="000111000110" foes="000111100110" cont="0"/>
        <request index="11" response="000110011110" foes="000110111110" cont="1"/>
    </junction>
    <junction id="J1" type="dead_end" x="0.00" y="250.00" incLanes="Nord_out_0" intLanes="" shape="0.00,250.00 3.20,250.00 0.00,250.00"/>
    <junction id="J2" type="dead_end" x="250.00" y="0.00" incLanes="Est_out_0" intLanes="" shape="250.00,0.00 250.00,-3.20 250.00,0.00"/>
    <junction id="J3" type="dead_end" x="0.00" y="-250.00" incLanes="Sud_out_0" intLanes="" shape="0.00,-250.00 -3.20,-250.00 0.00,-250.00"/>
    <junction id="J4" type="dead_end" x="-250.00" y="0.00" incLanes="Ovest_out_0" intLanes="" shape="-250.00,0.00 -250.00,3.20 -250.00,0.00"/>

    <junction id=":J0_12_0" type="internal" x="-0.96" y="3.20" incLanes=":J0_2_0 Sud_in_0" intLanes=":J0_4_0 :J0_5_0 :J0_6_0 :J0_7_0 :J0_10_0 :J0_11_0"/>
    <junction id=":J0_13_0" type="internal" x="3.20" y="0.96" incLanes=":J0_5_0 Ovest_in_0" intLanes=":J0_1_0 :J0_2_0 :J0_7_0 :J0_8_0 :J0_9_0 :J0_10_0"/>
    <junction id=":J0_14_0" type="internal" x="0.96" y="-3.20" incLanes=":J0_8_0 Nord_in_0" intLanes=":J0_0_0 :J0_1_0 :J0_4_0 :J0_5_0 :J0_10_0 :J0_11_0"/>
    <junction id=":J0_15_0" type="internal" x="-3.20" y="-0.96" incLanes=":J0_11_0 Est_in_0" intLanes=":J0_1_0 :J0_2_0 :J0_3_0 :J0_4_0 :J0_7_0 :J0_8_0"/>

    <connection from="Est_in" to="Nord_out" fromLane="0" toLane="0" via=":J0_3_0" tl="J4" linkIndex="0" dir="r" state="o"/>
    <connection from="Est_in" to="Ovest_out" fromLane="0" toLane="0" via=":J0_4_0" tl="J4" linkIndex="1" dir="s" state="o"/>
    <connection from="Est_in" to="Sud_out" fromLane="0" toLane="0" via=":J0_5_0" tl="J4" linkIndex="2" dir="l" state="o"/>
    <connection from="Nord_in" to="Ovest_out" fromLane="0" toLane="0" via=":J0_0_0" tl="J4" linkIndex="9" dir="r" state="O"/>
    <connection from="Nord_in" to="Sud_out" fromLane="0" toLane="0" via=":J0_1_0" tl="J4" linkIndex="10" dir="s" state="O"/>
    <connection from="Nord_in" to="Est_out" fromLane="0" toLane="0" via=":J0_2_0" tl="J4" linkIndex="11" dir="l" state="o"/>
    <connection from="Ovest_in" to="Sud_out" fromLane="0" toLane="0" via=":J0_9_0" tl="J4" linkIndex="6" dir="r" state="o"/>
    <connection from="Ovest_in" to="Est_out" fromLane="0" toLane="0" via=":J0_10_0" tl="J4" linkIndex="7" dir="s" state="o"/>
    <connection from="Ovest_in" to="Nord_out" fromLane="0" toLane="0" via=":J0_11_0" tl="J4" linkIndex="8" dir="l" state="o"/>
    <connection from="Sud_in" to="Est_out" fromLane="0" toLane="0" via=":J0_6_0" tl="J4" linkIndex="3" dir="r" state="O"/>
    <connection from="Sud_in" to="Nord_out" fromLane="0" toLane="0" via=":J0_7_0" tl="J4" linkIndex="4" dir="s" state="O"/>
    <connection from="Sud_in" to="Ovest_out" fromLane="0" toLane="0" via=":J0_8_0" tl="J4" linkIndex="5" dir="l" state="o"/>

    <connection from=":J0_0" to="Ovest_out" fromLane="0" toLane="0" dir="r" state="M"/>
    <connection from=":J0_1" to="Sud_out" fromLane="0" toLane="0" dir="s" state="M"/>
    <connection from=":J0_2" to="Est_out" fromLane="0" toLane="0" via=":J0_12_0" dir="l" state="m"/>
    <connection from=":J0_12" to="Est_out" fromLane="0" toLane="0" dir="l" state="M"/>
    <connection from=":J0_3" to="Nord_out" fromLane="0" toLane="0" dir="r" state="M"/>
    <connection from=":J0_4" to="Ovest_out" fromLane="0" toLane="0" dir="s" state="M"/>
    <connection from=":J0_5" to="Sud_out" fromLane="0" toLane="0" via=":J0_13_0" dir="l" state="m"/>
    <connection from=":J0_13" to="Sud_out" fromLane="0" toLane="0" dir="l" state="M"/>
    <connection from=":J0_6" to="Est_out" fromLane="0" toLane="0" dir="r" state="M"/>
    <connection from=":J0_7" to="Nord_out" fromLane="0" toLane="0" dir="s" state="M"/>
    <connection from=":J0_8" to="Ovest_out" fromLane="0" toLane="0" via=":J0_14_0" dir="l" state="m"/>
    <connection from=":J0_14" to="Ovest_out" fromLane="0" toLane="0" dir="l" state="M"/>
    <connection from=":J0_9" to="Sud_out" fromLane="0" toLane="0" dir="r" state="M"/>
    <connection from=":J0_10" to="Est_out" fromLane="0" toLane="0" dir="s" state="M"/>
    <connection from=":J0_11" to="Nord_out" fromLane="0" toLane="0" via=":J0_15_0" dir="l" state="m"/>
    <connection from=":J0_15" to="Nord_out" fromLane="0" toLane="0" dir="l" state="M"/>

</net>
